Circuit: * C:\Users\BrainW7\Documents\BM Documents\ELECTRONIC\ELECTRONIC DESING\ConversorTransductor\Simulacion.asc

Early termination of direct N-R iteration.
Direct Newton iteration failed to find .op point.  (Use ".option noopiter" to skip.)
Starting Gmin stepping
Gmin = 10
vernier = 0.5
vernier = 0.25
vernier = 0.125
Gmin = 5.5165
vernier = 0.0625
vernier = 0.03125
vernier = 0.015625
vernier = 0.0078125
Gmin = 5.49501
vernier = 0.00390625
vernier = 0.00195313
vernier = 0.000976563
vernier = 0.000488281
Gmin = 5.50104
Gmin = 0
Gmin stepping failed

Starting source stepping with srcstepmethod=0
Source Step = 3.0303%
Source Step = 33.3333%
Source Step = 63.6364%
Source Step = 93.9394%
Source stepping succeeded in finding the operating point.


Date: Fri Jun 10 19:32:52 2022
Total elapsed time: 1.258 seconds.

tnom = 27
temp = 27
method = modified trap
totiter = 8904
traniter = 7224
tranpoints = 3519
accept = 3401
rejected = 118
matrix size = 53
fillins = 221
solver = Normal
Matrix Compiler1: 17.18 KB object code size  9.2/8.8/[4.7]
Matrix Compiler2: 8.36 KB object code size  3.7/4.7/[2.3]

